<?xml version="1.0" encoding="UTF-8"?>

<!-- generated on 2024-08-09 13:39:42 by Eclipse SUMO netedit Version v1_20_0+1298-b6f2d91c27d
<neteditConfiguration xmlns:xsi="http://www.w3.org/2001/XMLSchema-instance" xsi:noNamespaceSchemaLocation="http://sumo.dlr.de/xsd/neteditConfiguration.xsd">

    <input>
        <sumo-net-file value="/home/jia0/project/QuantumTrafficLight/sumo/QT/QT.net.xml"/>
    </input>

    <output>
        <output-file value="/home/jia0/project/QuantumTrafficLight/sumo/QT/QT.net.xml"/>
    </output>

    <processing>
        <geometry.min-radius.fix.railways value="false"/>
        <geometry.max-grade.fix value="false"/>
        <offset.disable-normalization value="true"/>
        <lefthand value="0"/>
    </processing>

    <junctions>
        <no-turnarounds value="true"/>
        <junctions.corner-detail value="5"/>
        <junctions.limit-turn-speed value="5.50"/>
        <rectangular-lane-cut value="0"/>
    </junctions>

    <pedestrian>
        <walkingareas value="0"/>
    </pedestrian>

</neteditConfiguration>
-->

<net version="1.20" junctionCornerDetail="5" limitTurnSpeed="5.50" xmlns:xsi="http://www.w3.org/2001/XMLSchema-instance" xsi:noNamespaceSchemaLocation="http://sumo.dlr.de/xsd/net_file.xsd">

    <location netOffset="0.00,0.00" convBoundary="-700.00,-200.00,-300.00,200.00" origBoundary="-10000000000.00,-10000000000.00,10000000000.00,10000000000.00" projParameter="!"/>

    <edge id=":1-1-Junction_2_2_2_2_0" function="internal">
        <lane id=":1-1-Junction_2_2_2_2_0_0" index="0" speed="6.51" length="9.03" shape="-604.80,110.40 -605.15,107.95 -606.20,106.20 -607.95,105.15 -610.40,104.80"/>
    </edge>
    <edge id=":1-1-Junction_2_2_2_2_1" function="internal">
        <lane id=":1-1-Junction_2_2_2_2_1_0" index="0" speed="13.89" length="20.80" shape="-604.80,110.40 -604.80,89.60"/>
        <lane id=":1-1-Junction_2_2_2_2_1_1" index="1" speed="13.89" length="20.80" shape="-601.60,110.40 -601.60,89.60"/>
    </edge>
    <edge id=":1-1-Junction_2_2_2_2_3" function="internal">
        <lane id=":1-1-Junction_2_2_2_2_3_0" index="0" speed="9.26" length="5.01" shape="-601.60,110.40 -600.89,105.44"/>
    </edge>
    <edge id=":1-1-Junction_2_2_2_2_16" function="internal">
        <lane id=":1-1-Junction_2_2_2_2_16_0" index="0" speed="9.26" length="14.34" shape="-600.89,105.44 -600.85,105.15 -598.60,101.40 -594.85,99.15 -589.60,98.40"/>
    </edge>
    <edge id=":1-1-Junction_2_2_2_2_4" function="internal">
        <lane id=":1-1-Junction_2_2_2_2_4_0" index="0" speed="6.51" length="9.03" shape="-589.60,104.80 -592.05,105.15 -593.80,106.20 -594.85,107.95 -595.20,110.40"/>
    </edge>
    <edge id=":1-1-Junction_2_2_2_2_5" function="internal">
        <lane id=":1-1-Junction_2_2_2_2_5_0" index="0" speed="13.89" length="20.80" shape="-589.60,104.80 -610.40,104.80"/>
        <lane id=":1-1-Junction_2_2_2_2_5_1" index="1" speed="13.89" length="20.80" shape="-589.60,101.60 -610.40,101.60"/>
    </edge>
    <edge id=":1-1-Junction_2_2_2_2_7" function="internal">
        <lane id=":1-1-Junction_2_2_2_2_7_0" index="0" speed="9.26" length="5.01" shape="-589.60,101.60 -594.56,100.89"/>
    </edge>
    <edge id=":1-1-Junction_2_2_2_2_17" function="internal">
        <lane id=":1-1-Junction_2_2_2_2_17_0" index="0" speed="9.26" length="14.34" shape="-594.56,100.89 -594.85,100.85 -598.60,98.60 -600.85,94.85 -601.60,89.60"/>
    </edge>
    <edge id=":1-1-Junction_2_2_2_2_8" function="internal">
        <lane id=":1-1-Junction_2_2_2_2_8_0" index="0" speed="6.51" length="9.03" shape="-595.20,89.60 -594.85,92.05 -593.80,93.80 -592.05,94.85 -589.60,95.20"/>
    </edge>
    <edge id=":1-1-Junction_2_2_2_2_9" function="internal">
        <lane id=":1-1-Junction_2_2_2_2_9_0" index="0" speed="13.89" length="20.80" shape="-595.20,89.60 -595.20,110.40"/>
        <lane id=":1-1-Junction_2_2_2_2_9_1" index="1" speed="13.89" length="20.80" shape="-598.40,89.60 -598.40,110.40"/>
    </edge>
    <edge id=":1-1-Junction_2_2_2_2_11" function="internal">
        <lane id=":1-1-Junction_2_2_2_2_11_0" index="0" speed="9.26" length="5.01" shape="-598.40,89.60 -599.11,94.56"/>
    </edge>
    <edge id=":1-1-Junction_2_2_2_2_18" function="internal">
        <lane id=":1-1-Junction_2_2_2_2_18_0" index="0" speed="9.26" length="14.34" shape="-599.11,94.56 -599.15,94.85 -601.40,98.60 -605.15,100.85 -610.40,101.60"/>
    </edge>
    <edge id=":1-1-Junction_2_2_2_2_12" function="internal">
        <lane id=":1-1-Junction_2_2_2_2_12_0" index="0" speed="6.51" length="9.03" shape="-610.40,95.20 -607.95,94.85 -606.20,93.80 -605.15,92.05 -604.80,89.60"/>
    </edge>
    <edge id=":1-1-Junction_2_2_2_2_13" function="internal">
        <lane id=":1-1-Junction_2_2_2_2_13_0" index="0" speed="13.89" length="20.80" shape="-610.40,95.20 -589.60,95.20"/>
        <lane id=":1-1-Junction_2_2_2_2_13_1" index="1" speed="13.89" length="20.80" shape="-610.40,98.40 -589.60,98.40"/>
    </edge>
    <edge id=":1-1-Junction_2_2_2_2_15" function="internal">
        <lane id=":1-1-Junction_2_2_2_2_15_0" index="0" speed="9.26" length="5.01" shape="-610.40,98.40 -605.44,99.11"/>
    </edge>
    <edge id=":1-1-Junction_2_2_2_2_19" function="internal">
        <lane id=":1-1-Junction_2_2_2_2_19_0" index="0" speed="9.26" length="14.34" shape="-605.44,99.11 -605.15,99.15 -601.40,101.40 -599.15,105.15 -598.40,110.40"/>
    </edge>
    <edge id=":1-2-TJunction_e_2_2_2_0" function="internal">
        <lane id=":1-2-TJunction_e_2_2_2_0_0" index="0" speed="13.89" length="20.80" shape="-604.80,10.40 -604.80,-10.40"/>
        <lane id=":1-2-TJunction_e_2_2_2_0_1" index="1" speed="13.89" length="20.80" shape="-601.60,10.40 -601.60,-10.40"/>
    </edge>
    <edge id=":1-2-TJunction_e_2_2_2_2" function="internal">
        <lane id=":1-2-TJunction_e_2_2_2_2_0" index="0" speed="9.26" length="5.01" shape="-601.60,10.40 -600.89,5.44"/>
    </edge>
    <edge id=":1-2-TJunction_e_2_2_2_8" function="internal">
        <lane id=":1-2-TJunction_e_2_2_2_8_0" index="0" speed="9.26" length="14.34" shape="-600.89,5.44 -600.85,5.15 -598.60,1.40 -594.85,-0.85 -589.60,-1.60"/>
    </edge>
    <edge id=":1-2-TJunction_e_2_2_2_3" function="internal">
        <lane id=":1-2-TJunction_e_2_2_2_3_0" index="0" speed="6.51" length="9.03" shape="-589.60,4.80 -592.05,5.15 -593.80,6.20 -594.85,7.95 -595.20,10.40"/>
    </edge>
    <edge id=":1-2-TJunction_e_2_2_2_4" function="internal">
        <lane id=":1-2-TJunction_e_2_2_2_4_0" index="0" speed="9.26" length="19.35" shape="-589.60,1.60 -594.85,0.85 -598.60,-1.40 -600.85,-5.15 -601.60,-10.40"/>
    </edge>
    <edge id=":1-2-TJunction_e_2_2_2_5" function="internal">
        <lane id=":1-2-TJunction_e_2_2_2_5_0" index="0" speed="6.51" length="9.03" shape="-595.20,-10.40 -594.85,-7.95 -593.80,-6.20 -592.05,-5.15 -589.60,-4.80"/>
    </edge>
    <edge id=":1-2-TJunction_e_2_2_2_6" function="internal">
        <lane id=":1-2-TJunction_e_2_2_2_6_0" index="0" speed="13.89" length="20.80" shape="-595.20,-10.40 -595.20,10.40"/>
        <lane id=":1-2-TJunction_e_2_2_2_6_1" index="1" speed="13.89" length="20.80" shape="-598.40,-10.40 -598.40,10.40"/>
    </edge>
    <edge id=":1-3-Junction_2_2_2_2_0" function="internal">
        <lane id=":1-3-Junction_2_2_2_2_0_0" index="0" speed="6.51" length="9.03" shape="-604.80,-89.60 -605.15,-92.05 -606.20,-93.80 -607.95,-94.85 -610.40,-95.20"/>
    </edge>
    <edge id=":1-3-Junction_2_2_2_2_1" function="internal">
        <lane id=":1-3-Junction_2_2_2_2_1_0" index="0" speed="13.89" length="20.80" shape="-604.80,-89.60 -604.80,-110.40"/>
        <lane id=":1-3-Junction_2_2_2_2_1_1" index="1" speed="13.89" length="20.80" shape="-601.60,-89.60 -601.60,-110.40"/>
    </edge>
    <edge id=":1-3-Junction_2_2_2_2_3" function="internal">
        <lane id=":1-3-Junction_2_2_2_2_3_0" index="0" speed="9.26" length="5.01" shape="-601.60,-89.60 -600.89,-94.56"/>
    </edge>
    <edge id=":1-3-Junction_2_2_2_2_16" function="internal">
        <lane id=":1-3-Junction_2_2_2_2_16_0" index="0" speed="9.26" length="14.34" shape="-600.89,-94.56 -600.85,-94.85 -598.60,-98.60 -594.85,-100.85 -589.60,-101.60"/>
    </edge>
    <edge id=":1-3-Junction_2_2_2_2_4" function="internal">
        <lane id=":1-3-Junction_2_2_2_2_4_0" index="0" speed="6.51" length="9.03" shape="-589.60,-95.20 -592.05,-94.85 -593.80,-93.80 -594.85,-92.05 -595.20,-89.60"/>
    </edge>
    <edge id=":1-3-Junction_2_2_2_2_5" function="internal">
        <lane id=":1-3-Junction_2_2_2_2_5_0" index="0" speed="13.89" length="20.80" shape="-589.60,-95.20 -610.40,-95.20"/>
        <lane id=":1-3-Junction_2_2_2_2_5_1" index="1" speed="13.89" length="20.80" shape="-589.60,-98.40 -610.40,-98.40"/>
    </edge>
    <edge id=":1-3-Junction_2_2_2_2_7" function="internal">
        <lane id=":1-3-Junction_2_2_2_2_7_0" index="0" speed="9.26" length="5.01" shape="-589.60,-98.40 -594.56,-99.11"/>
    </edge>
    <edge id=":1-3-Junction_2_2_2_2_17" function="internal">
        <lane id=":1-3-Junction_2_2_2_2_17_0" index="0" speed="9.26" length="14.34" shape="-594.56,-99.11 -594.85,-99.15 -598.60,-101.40 -600.85,-105.15 -601.60,-110.40"/>
    </edge>
    <edge id=":1-3-Junction_2_2_2_2_8" function="internal">
        <lane id=":1-3-Junction_2_2_2_2_8_0" index="0" speed="6.51" length="9.03" shape="-595.20,-110.40 -594.85,-107.95 -593.80,-106.20 -592.05,-105.15 -589.60,-104.80"/>
    </edge>
    <edge id=":1-3-Junction_2_2_2_2_9" function="internal">
        <lane id=":1-3-Junction_2_2_2_2_9_0" index="0" speed="13.89" length="20.80" shape="-595.20,-110.40 -595.20,-89.60"/>
        <lane id=":1-3-Junction_2_2_2_2_9_1" index="1" speed="13.89" length="20.80" shape="-598.40,-110.40 -598.40,-89.60"/>
    </edge>
    <edge id=":1-3-Junction_2_2_2_2_11" function="internal">
        <lane id=":1-3-Junction_2_2_2_2_11_0" index="0" speed="9.26" length="5.01" shape="-598.40,-110.40 -599.11,-105.44"/>
    </edge>
    <edge id=":1-3-Junction_2_2_2_2_18" function="internal">
        <lane id=":1-3-Junction_2_2_2_2_18_0" index="0" speed="9.26" length="14.34" shape="-599.11,-105.44 -599.15,-105.15 -601.40,-101.40 -605.15,-99.15 -610.40,-98.40"/>
    </edge>
    <edge id=":1-3-Junction_2_2_2_2_12" function="internal">
        <lane id=":1-3-Junction_2_2_2_2_12_0" index="0" speed="6.51" length="9.03" shape="-610.40,-104.80 -607.95,-105.15 -606.20,-106.20 -605.15,-107.95 -604.80,-110.40"/>
    </edge>
    <edge id=":1-3-Junction_2_2_2_2_13" function="internal">
        <lane id=":1-3-Junction_2_2_2_2_13_0" index="0" speed="13.89" length="20.80" shape="-610.40,-104.80 -589.60,-104.80"/>
        <lane id=":1-3-Junction_2_2_2_2_13_1" index="1" speed="13.89" length="20.80" shape="-610.40,-101.60 -589.60,-101.60"/>
    </edge>
    <edge id=":1-3-Junction_2_2_2_2_15" function="internal">
        <lane id=":1-3-Junction_2_2_2_2_15_0" index="0" speed="9.26" length="5.01" shape="-610.40,-101.60 -605.44,-100.89"/>
    </edge>
    <edge id=":1-3-Junction_2_2_2_2_19" function="internal">
        <lane id=":1-3-Junction_2_2_2_2_19_0" index="0" speed="9.26" length="14.34" shape="-605.44,-100.89 -605.15,-100.85 -601.40,-98.60 -599.15,-94.85 -598.40,-89.60"/>
    </edge>
    <edge id=":2-1-TJunction_s_2_2_2_0" function="internal">
        <lane id=":2-1-TJunction_s_2_2_2_0_0" index="0" speed="13.89" length="20.80" shape="-489.60,104.80 -510.40,104.80"/>
        <lane id=":2-1-TJunction_s_2_2_2_0_1" index="1" speed="13.89" length="20.80" shape="-489.60,101.60 -510.40,101.60"/>
    </edge>
    <edge id=":2-1-TJunction_s_2_2_2_2" function="internal">
        <lane id=":2-1-TJunction_s_2_2_2_2_0" index="0" speed="9.26" length="5.01" shape="-489.60,101.60 -494.56,100.89"/>
    </edge>
    <edge id=":2-1-TJunction_s_2_2_2_8" function="internal">
        <lane id=":2-1-TJunction_s_2_2_2_8_0" index="0" speed="9.26" length="14.34" shape="-494.56,100.89 -494.85,100.85 -498.60,98.60 -500.85,94.85 -501.60,89.60"/>
    </edge>
    <edge id=":2-1-TJunction_s_2_2_2_3" function="internal">
        <lane id=":2-1-TJunction_s_2_2_2_3_0" index="0" speed="6.51" length="9.03" shape="-495.20,89.60 -494.85,92.05 -493.80,93.80 -492.05,94.85 -489.60,95.20"/>
    </edge>
    <edge id=":2-1-TJunction_s_2_2_2_4" function="internal">
        <lane id=":2-1-TJunction_s_2_2_2_4_0" index="0" speed="9.26" length="19.35" shape="-498.40,89.60 -499.15,94.85 -501.40,98.60 -505.15,100.85 -510.40,101.60"/>
    </edge>
    <edge id=":2-1-TJunction_s_2_2_2_5" function="internal">
        <lane id=":2-1-TJunction_s_2_2_2_5_0" index="0" speed="6.51" length="9.03" shape="-510.40,95.20 -507.95,94.85 -506.20,93.80 -505.15,92.05 -504.80,89.60"/>
    </edge>
    <edge id=":2-1-TJunction_s_2_2_2_6" function="internal">
        <lane id=":2-1-TJunction_s_2_2_2_6_0" index="0" speed="13.89" length="20.80" shape="-510.40,95.20 -489.60,95.20"/>
        <lane id=":2-1-TJunction_s_2_2_2_6_1" index="1" speed="13.89" length="20.80" shape="-510.40,98.40 -489.60,98.40"/>
    </edge>
    <edge id=":2-2-Junction_2_2_2_2_0" function="internal">
        <lane id=":2-2-Junction_2_2_2_2_0_0" index="0" speed="6.51" length="9.03" shape="-504.80,10.40 -505.15,7.95 -506.20,6.20 -507.95,5.15 -510.40,4.80"/>
    </edge>
    <edge id=":2-2-Junction_2_2_2_2_1" function="internal">
        <lane id=":2-2-Junction_2_2_2_2_1_0" index="0" speed="13.89" length="20.80" shape="-504.80,10.40 -504.80,-10.40"/>
        <lane id=":2-2-Junction_2_2_2_2_1_1" index="1" speed="13.89" length="20.80" shape="-501.60,10.40 -501.60,-10.40"/>
    </edge>
    <edge id=":2-2-Junction_2_2_2_2_3" function="internal">
        <lane id=":2-2-Junction_2_2_2_2_3_0" index="0" speed="9.26" length="5.01" shape="-501.60,10.40 -500.89,5.44"/>
    </edge>
    <edge id=":2-2-Junction_2_2_2_2_16" function="internal">
        <lane id=":2-2-Junction_2_2_2_2_16_0" index="0" speed="9.26" length="14.34" shape="-500.89,5.44 -500.85,5.15 -498.60,1.40 -494.85,-0.85 -489.60,-1.60"/>
    </edge>
    <edge id=":2-2-Junction_2_2_2_2_4" function="internal">
        <lane id=":2-2-Junction_2_2_2_2_4_0" index="0" speed="6.51" length="9.03" shape="-489.60,4.80 -492.05,5.15 -493.80,6.20 -494.85,7.95 -495.20,10.40"/>
    </edge>
    <edge id=":2-2-Junction_2_2_2_2_5" function="internal">
        <lane id=":2-2-Junction_2_2_2_2_5_0" index="0" speed="13.89" length="20.80" shape="-489.60,4.80 -510.40,4.80"/>
        <lane id=":2-2-Junction_2_2_2_2_5_1" index="1" speed="13.89" length="20.80" shape="-489.60,1.60 -510.40,1.60"/>
    </edge>
    <edge id=":2-2-Junction_2_2_2_2_7" function="internal">
        <lane id=":2-2-Junction_2_2_2_2_7_0" index="0" speed="9.26" length="5.01" shape="-489.60,1.60 -494.56,0.89"/>
    </edge>
    <edge id=":2-2-Junction_2_2_2_2_17" function="internal">
        <lane id=":2-2-Junction_2_2_2_2_17_0" index="0" speed="9.26" length="14.34" shape="-494.56,0.89 -494.85,0.85 -498.60,-1.40 -500.85,-5.15 -501.60,-10.40"/>
    </edge>
    <edge id=":2-2-Junction_2_2_2_2_8" function="internal">
        <lane id=":2-2-Junction_2_2_2_2_8_0" index="0" speed="6.51" length="9.03" shape="-495.20,-10.40 -494.85,-7.95 -493.80,-6.20 -492.05,-5.15 -489.60,-4.80"/>
    </edge>
    <edge id=":2-2-Junction_2_2_2_2_9" function="internal">
        <lane id=":2-2-Junction_2_2_2_2_9_0" index="0" speed="13.89" length="20.80" shape="-495.20,-10.40 -495.20,10.40"/>
        <lane id=":2-2-Junction_2_2_2_2_9_1" index="1" speed="13.89" length="20.80" shape="-498.40,-10.40 -498.40,10.40"/>
    </edge>
    <edge id=":2-2-Junction_2_2_2_2_11" function="internal">
        <lane id=":2-2-Junction_2_2_2_2_11_0" index="0" speed="9.26" length="5.01" shape="-498.40,-10.40 -499.11,-5.44"/>
    </edge>
    <edge id=":2-2-Junction_2_2_2_2_18" function="internal">
        <lane id=":2-2-Junction_2_2_2_2_18_0" index="0" speed="9.26" length="14.34" shape="-499.11,-5.44 -499.15,-5.15 -501.40,-1.40 -505.15,0.85 -510.40,1.60"/>
    </edge>
    <edge id=":2-2-Junction_2_2_2_2_12" function="internal">
        <lane id=":2-2-Junction_2_2_2_2_12_0" index="0" speed="6.51" length="9.03" shape="-510.40,-4.80 -507.95,-5.15 -506.20,-6.20 -505.15,-7.95 -504.80,-10.40"/>
    </edge>
    <edge id=":2-2-Junction_2_2_2_2_13" function="internal">
        <lane id=":2-2-Junction_2_2_2_2_13_0" index="0" speed="13.89" length="20.80" shape="-510.40,-4.80 -489.60,-4.80"/>
        <lane id=":2-2-Junction_2_2_2_2_13_1" index="1" speed="13.89" length="20.80" shape="-510.40,-1.60 -489.60,-1.60"/>
    </edge>
    <edge id=":2-2-Junction_2_2_2_2_15" function="internal">
        <lane id=":2-2-Junction_2_2_2_2_15_0" index="0" speed="9.26" length="5.01" shape="-510.40,-1.60 -505.44,-0.89"/>
    </edge>
    <edge id=":2-2-Junction_2_2_2_2_19" function="internal">
        <lane id=":2-2-Junction_2_2_2_2_19_0" index="0" speed="9.26" length="14.34" shape="-505.44,-0.89 -505.15,-0.85 -501.40,1.40 -499.15,5.15 -498.40,10.40"/>
    </edge>
    <edge id=":2-3-TJunction_n_2_2_2_0" function="internal">
        <lane id=":2-3-TJunction_n_2_2_2_0_0" index="0" speed="6.51" length="9.03" shape="-504.80,-89.60 -505.15,-92.05 -506.20,-93.80 -507.95,-94.85 -510.40,-95.20"/>
    </edge>
    <edge id=":2-3-TJunction_n_2_2_2_1" function="internal">
        <lane id=":2-3-TJunction_n_2_2_2_1_0" index="0" speed="9.26" length="19.35" shape="-501.60,-89.60 -500.85,-94.85 -498.60,-98.60 -494.85,-100.85 -489.60,-101.60"/>
    </edge>
    <edge id=":2-3-TJunction_n_2_2_2_2" function="internal">
        <lane id=":2-3-TJunction_n_2_2_2_2_0" index="0" speed="6.51" length="9.03" shape="-489.60,-95.20 -492.05,-94.85 -493.80,-93.80 -494.85,-92.05 -495.20,-89.60"/>
    </edge>
    <edge id=":2-3-TJunction_n_2_2_2_3" function="internal">
        <lane id=":2-3-TJunction_n_2_2_2_3_0" index="0" speed="13.89" length="20.80" shape="-489.60,-95.20 -510.40,-95.20"/>
        <lane id=":2-3-TJunction_n_2_2_2_3_1" index="1" speed="13.89" length="20.80" shape="-489.60,-98.40 -510.40,-98.40"/>
    </edge>
    <edge id=":2-3-TJunction_n_2_2_2_5" function="internal">
        <lane id=":2-3-TJunction_n_2_2_2_5_0" index="0" speed="13.89" length="20.80" shape="-510.40,-104.80 -489.60,-104.80"/>
        <lane id=":2-3-TJunction_n_2_2_2_5_1" index="1" speed="13.89" length="20.80" shape="-510.40,-101.60 -489.60,-101.60"/>
    </edge>
    <edge id=":2-3-TJunction_n_2_2_2_7" function="internal">
        <lane id=":2-3-TJunction_n_2_2_2_7_0" index="0" speed="9.26" length="5.01" shape="-510.40,-101.60 -505.44,-100.89"/>
    </edge>
    <edge id=":2-3-TJunction_n_2_2_2_8" function="internal">
        <lane id=":2-3-TJunction_n_2_2_2_8_0" index="0" speed="9.26" length="14.34" shape="-505.44,-100.89 -505.15,-100.85 -501.40,-98.60 -499.15,-94.85 -498.40,-89.60"/>
    </edge>
    <edge id=":3-1-Junction_2_2_2_2_0" function="internal">
        <lane id=":3-1-Junction_2_2_2_2_0_0" index="0" speed="6.51" length="9.03" shape="-404.80,110.40 -405.15,107.95 -406.20,106.20 -407.95,105.15 -410.40,104.80"/>
    </edge>
    <edge id=":3-1-Junction_2_2_2_2_1" function="internal">
        <lane id=":3-1-Junction_2_2_2_2_1_0" index="0" speed="13.89" length="20.80" shape="-404.80,110.40 -404.80,89.60"/>
        <lane id=":3-1-Junction_2_2_2_2_1_1" index="1" speed="13.89" length="20.80" shape="-401.60,110.40 -401.60,89.60"/>
    </edge>
    <edge id=":3-1-Junction_2_2_2_2_3" function="internal">
        <lane id=":3-1-Junction_2_2_2_2_3_0" index="0" speed="9.26" length="5.01" shape="-401.60,110.40 -400.89,105.44"/>
    </edge>
    <edge id=":3-1-Junction_2_2_2_2_16" function="internal">
        <lane id=":3-1-Junction_2_2_2_2_16_0" index="0" speed="9.26" length="14.34" shape="-400.89,105.44 -400.85,105.15 -398.60,101.40 -394.85,99.15 -389.60,98.40"/>
    </edge>
    <edge id=":3-1-Junction_2_2_2_2_4" function="internal">
        <lane id=":3-1-Junction_2_2_2_2_4_0" index="0" speed="6.51" length="9.03" shape="-389.60,104.80 -392.05,105.15 -393.80,106.20 -394.85,107.95 -395.20,110.40"/>
    </edge>
    <edge id=":3-1-Junction_2_2_2_2_5" function="internal">
        <lane id=":3-1-Junction_2_2_2_2_5_0" index="0" speed="13.89" length="20.80" shape="-389.60,104.80 -410.40,104.80"/>
        <lane id=":3-1-Junction_2_2_2_2_5_1" index="1" speed="13.89" length="20.80" shape="-389.60,101.60 -410.40,101.60"/>
    </edge>
    <edge id=":3-1-Junction_2_2_2_2_7" function="internal">
        <lane id=":3-1-Junction_2_2_2_2_7_0" index="0" speed="9.26" length="5.01" shape="-389.60,101.60 -394.56,100.89"/>
    </edge>
    <edge id=":3-1-Junction_2_2_2_2_17" function="internal">
        <lane id=":3-1-Junction_2_2_2_2_17_0" index="0" speed="9.26" length="14.34" shape="-394.56,100.89 -394.85,100.85 -398.60,98.60 -400.85,94.85 -401.60,89.60"/>
    </edge>
    <edge id=":3-1-Junction_2_2_2_2_8" function="internal">
        <lane id=":3-1-Junction_2_2_2_2_8_0" index="0" speed="6.51" length="9.03" shape="-395.20,89.60 -394.85,92.05 -393.80,93.80 -392.05,94.85 -389.60,95.20"/>
    </edge>
    <edge id=":3-1-Junction_2_2_2_2_9" function="internal">
        <lane id=":3-1-Junction_2_2_2_2_9_0" index="0" speed="13.89" length="20.80" shape="-395.20,89.60 -395.20,110.40"/>
        <lane id=":3-1-Junction_2_2_2_2_9_1" index="1" speed="13.89" length="20.80" shape="-398.40,89.60 -398.40,110.40"/>
    </edge>
    <edge id=":3-1-Junction_2_2_2_2_11" function="internal">
        <lane id=":3-1-Junction_2_2_2_2_11_0" index="0" speed="9.26" length="5.01" shape="-398.40,89.60 -399.11,94.56"/>
    </edge>
    <edge id=":3-1-Junction_2_2_2_2_18" function="internal">
        <lane id=":3-1-Junction_2_2_2_2_18_0" index="0" speed="9.26" length="14.34" shape="-399.11,94.56 -399.15,94.85 -401.40,98.60 -405.15,100.85 -410.40,101.60"/>
    </edge>
    <edge id=":3-1-Junction_2_2_2_2_12" function="internal">
        <lane id=":3-1-Junction_2_2_2_2_12_0" index="0" speed="6.51" length="9.03" shape="-410.40,95.20 -407.95,94.85 -406.20,93.80 -405.15,92.05 -404.80,89.60"/>
    </edge>
    <edge id=":3-1-Junction_2_2_2_2_13" function="internal">
        <lane id=":3-1-Junction_2_2_2_2_13_0" index="0" speed="13.89" length="20.80" shape="-410.40,95.20 -389.60,95.20"/>
        <lane id=":3-1-Junction_2_2_2_2_13_1" index="1" speed="13.89" length="20.80" shape="-410.40,98.40 -389.60,98.40"/>
    </edge>
    <edge id=":3-1-Junction_2_2_2_2_15" function="internal">
        <lane id=":3-1-Junction_2_2_2_2_15_0" index="0" speed="9.26" length="5.01" shape="-410.40,98.40 -405.44,99.11"/>
    </edge>
    <edge id=":3-1-Junction_2_2_2_2_19" function="internal">
        <lane id=":3-1-Junction_2_2_2_2_19_0" index="0" speed="9.26" length="14.34" shape="-405.44,99.11 -405.15,99.15 -401.40,101.40 -399.15,105.15 -398.40,110.40"/>
    </edge>
    <edge id=":3-2-TJunction_w_2_2_2_0" function="internal">
        <lane id=":3-2-TJunction_w_2_2_2_0_0" index="0" speed="6.51" length="9.03" shape="-404.80,10.40 -405.15,7.95 -406.20,6.20 -407.95,5.15 -410.40,4.80"/>
    </edge>
    <edge id=":3-2-TJunction_w_2_2_2_1" function="internal">
        <lane id=":3-2-TJunction_w_2_2_2_1_0" index="0" speed="13.89" length="20.80" shape="-404.80,10.40 -404.80,-10.40"/>
        <lane id=":3-2-TJunction_w_2_2_2_1_1" index="1" speed="13.89" length="20.80" shape="-401.60,10.40 -401.60,-10.40"/>
    </edge>
    <edge id=":3-2-TJunction_w_2_2_2_3" function="internal">
        <lane id=":3-2-TJunction_w_2_2_2_3_0" index="0" speed="13.89" length="20.80" shape="-395.20,-10.40 -395.20,10.40"/>
        <lane id=":3-2-TJunction_w_2_2_2_3_1" index="1" speed="13.89" length="20.80" shape="-398.40,-10.40 -398.40,10.40"/>
    </edge>
    <edge id=":3-2-TJunction_w_2_2_2_5" function="internal">
        <lane id=":3-2-TJunction_w_2_2_2_5_0" index="0" speed="9.26" length="5.01" shape="-398.40,-10.40 -399.11,-5.44"/>
    </edge>
    <edge id=":3-2-TJunction_w_2_2_2_8" function="internal">
        <lane id=":3-2-TJunction_w_2_2_2_8_0" index="0" speed="9.26" length="14.34" shape="-399.11,-5.44 -399.15,-5.15 -401.40,-1.40 -405.15,0.85 -410.40,1.60"/>
    </edge>
    <edge id=":3-2-TJunction_w_2_2_2_6" function="internal">
        <lane id=":3-2-TJunction_w_2_2_2_6_0" index="0" speed="6.51" length="9.03" shape="-410.40,-4.80 -407.95,-5.15 -406.20,-6.20 -405.15,-7.95 -404.80,-10.40"/>
    </edge>
    <edge id=":3-2-TJunction_w_2_2_2_7" function="internal">
        <lane id=":3-2-TJunction_w_2_2_2_7_0" index="0" speed="9.26" length="19.35" shape="-410.40,-1.60 -405.15,-0.85 -401.40,1.40 -399.15,5.15 -398.40,10.40"/>
    </edge>
    <edge id=":3-3-Junction_2_2_2_2_0" function="internal">
        <lane id=":3-3-Junction_2_2_2_2_0_0" index="0" speed="6.51" length="9.03" shape="-404.80,-89.60 -405.15,-92.05 -406.20,-93.80 -407.95,-94.85 -410.40,-95.20"/>
    </edge>
    <edge id=":3-3-Junction_2_2_2_2_1" function="internal">
        <lane id=":3-3-Junction_2_2_2_2_1_0" index="0" speed="13.89" length="20.80" shape="-404.80,-89.60 -404.80,-110.40"/>
        <lane id=":3-3-Junction_2_2_2_2_1_1" index="1" speed="13.89" length="20.80" shape="-401.60,-89.60 -401.60,-110.40"/>
    </edge>
    <edge id=":3-3-Junction_2_2_2_2_3" function="internal">
        <lane id=":3-3-Junction_2_2_2_2_3_0" index="0" speed="9.26" length="5.01" shape="-401.60,-89.60 -400.89,-94.56"/>
    </edge>
    <edge id=":3-3-Junction_2_2_2_2_16" function="internal">
        <lane id=":3-3-Junction_2_2_2_2_16_0" index="0" speed="9.26" length="14.34" shape="-400.89,-94.56 -400.85,-94.85 -398.60,-98.60 -394.85,-100.85 -389.60,-101.60"/>
    </edge>
    <edge id=":3-3-Junction_2_2_2_2_4" function="internal">
        <lane id=":3-3-Junction_2_2_2_2_4_0" index="0" speed="6.51" length="9.03" shape="-389.60,-95.20 -392.05,-94.85 -393.80,-93.80 -394.85,-92.05 -395.20,-89.60"/>
    </edge>
    <edge id=":3-3-Junction_2_2_2_2_5" function="internal">
        <lane id=":3-3-Junction_2_2_2_2_5_0" index="0" speed="13.89" length="20.80" shape="-389.60,-95.20 -410.40,-95.20"/>
        <lane id=":3-3-Junction_2_2_2_2_5_1" index="1" speed="13.89" length="20.80" shape="-389.60,-98.40 -410.40,-98.40"/>
    </edge>
    <edge id=":3-3-Junction_2_2_2_2_7" function="internal">
        <lane id=":3-3-Junction_2_2_2_2_7_0" index="0" speed="9.26" length="5.01" shape="-389.60,-98.40 -394.56,-99.11"/>
    </edge>
    <edge id=":3-3-Junction_2_2_2_2_17" function="internal">
        <lane id=":3-3-Junction_2_2_2_2_17_0" index="0" speed="9.26" length="14.34" shape="-394.56,-99.11 -394.85,-99.15 -398.60,-101.40 -400.85,-105.15 -401.60,-110.40"/>
    </edge>
    <edge id=":3-3-Junction_2_2_2_2_8" function="internal">
        <lane id=":3-3-Junction_2_2_2_2_8_0" index="0" speed="6.51" length="9.03" shape="-395.20,-110.40 -394.85,-107.95 -393.80,-106.20 -392.05,-105.15 -389.60,-104.80"/>
    </edge>
    <edge id=":3-3-Junction_2_2_2_2_9" function="internal">
        <lane id=":3-3-Junction_2_2_2_2_9_0" index="0" speed="13.89" length="20.80" shape="-395.20,-110.40 -395.20,-89.60"/>
        <lane id=":3-3-Junction_2_2_2_2_9_1" index="1" speed="13.89" length="20.80" shape="-398.40,-110.40 -398.40,-89.60"/>
    </edge>
    <edge id=":3-3-Junction_2_2_2_2_11" function="internal">
        <lane id=":3-3-Junction_2_2_2_2_11_0" index="0" speed="9.26" length="5.01" shape="-398.40,-110.40 -399.11,-105.44"/>
    </edge>
    <edge id=":3-3-Junction_2_2_2_2_18" function="internal">
        <lane id=":3-3-Junction_2_2_2_2_18_0" index="0" speed="9.26" length="14.34" shape="-399.11,-105.44 -399.15,-105.15 -401.40,-101.40 -405.15,-99.15 -410.40,-98.40"/>
    </edge>
    <edge id=":3-3-Junction_2_2_2_2_12" function="internal">
        <lane id=":3-3-Junction_2_2_2_2_12_0" index="0" speed="6.51" length="9.03" shape="-410.40,-104.80 -407.95,-105.15 -406.20,-106.20 -405.15,-107.95 -404.80,-110.40"/>
    </edge>
    <edge id=":3-3-Junction_2_2_2_2_13" function="internal">
        <lane id=":3-3-Junction_2_2_2_2_13_0" index="0" speed="13.89" length="20.80" shape="-410.40,-104.80 -389.60,-104.80"/>
        <lane id=":3-3-Junction_2_2_2_2_13_1" index="1" speed="13.89" length="20.80" shape="-410.40,-101.60 -389.60,-101.60"/>
    </edge>
    <edge id=":3-3-Junction_2_2_2_2_15" function="internal">
        <lane id=":3-3-Junction_2_2_2_2_15_0" index="0" speed="9.26" length="5.01" shape="-410.40,-101.60 -405.44,-100.89"/>
    </edge>
    <edge id=":3-3-Junction_2_2_2_2_19" function="internal">
        <lane id=":3-3-Junction_2_2_2_2_19_0" index="0" speed="9.26" length="14.34" shape="-405.44,-100.89 -405.15,-100.85 -401.40,-98.60 -399.15,-94.85 -398.40,-89.60"/>
    </edge>

    <edge id="-E63" from="1-1-Junction_2_2_2_2" to="0-1-end" priority="-1">
        <lane id="-E63_0" index="0" speed="13.89" length="89.60" shape="-610.40,104.80 -700.00,104.80"/>
        <lane id="-E63_1" index="1" speed="13.89" length="89.60" shape="-610.40,101.60 -700.00,101.60"/>
    </edge>
    <edge id="-E64" from="2-1-TJunction_s_2_2_2" to="1-1-Junction_2_2_2_2" priority="-1">
        <lane id="-E64_0" index="0" speed="13.89" length="79.20" shape="-510.40,104.80 -589.60,104.80"/>
        <lane id="-E64_1" index="1" speed="13.89" length="79.20" shape="-510.40,101.60 -589.60,101.60"/>
    </edge>
    <edge id="-E65" from="3-1-Junction_2_2_2_2" to="2-1-TJunction_s_2_2_2" priority="-1">
        <lane id="-E65_0" index="0" speed="13.89" length="79.20" shape="-410.40,104.80 -489.60,104.80"/>
        <lane id="-E65_1" index="1" speed="13.89" length="79.20" shape="-410.40,101.60 -489.60,101.60"/>
    </edge>
    <edge id="-E66" from="4-1-end" to="3-1-Junction_2_2_2_2" priority="-1">
        <lane id="-E66_0" index="0" speed="13.89" length="89.60" shape="-300.00,104.80 -389.60,104.80"/>
        <lane id="-E66_1" index="1" speed="13.89" length="89.60" shape="-300.00,101.60 -389.60,101.60"/>
    </edge>
    <edge id="-E68" from="2-2-Junction_2_2_2_2" to="1-2-TJunction_e_2_2_2" priority="-1">
        <lane id="-E68_0" index="0" speed="13.89" length="79.20" shape="-510.40,4.80 -589.60,4.80"/>
        <lane id="-E68_1" index="1" speed="13.89" length="79.20" shape="-510.40,1.60 -589.60,1.60"/>
    </edge>